REMARK  Name = 
REMARK  7 active torsions:
REMARK  status: ('A' for Active; 'I' for Inactive)
REMARK    1  A    between atoms: C_1  and  O_9
REMARK    2  A    between atoms: C_3  and  C_7
REMARK    3  A    between atoms: C_6  and  N_11
REMARK    4  A    between atoms: O_9  and  C_16
REMARK    5  A    between atoms: N_11  and  C_26
REMARK    6  A    between atoms: C_14  and  N_21
REMARK    7  A    between atoms: C_17  and  C_19
REMARK                            x       y       z     vdW  Elec       q    Type
REMARK                         _______ _______ _______ _____ _____    ______ ____
ROOT
ATOM     12  O   UNL     1       2.212   0.677   0.136  0.00  0.00    +0.000 OA
ATOM     13  C   UNL     1       3.522   0.730  -0.464  0.00  0.00    +0.000 C 
ATOM     14  C   UNL     1       3.593  -0.124  -1.765  0.00  0.00    +0.000 C 
ATOM     15  C   UNL     1       2.440   0.294  -2.729  0.00  0.00    +0.000 C 
ATOM     16  C   UNL     1       1.054   0.395  -2.018  0.00  0.00    +0.000 C 
ATOM     17  C   UNL     1       1.157   1.214  -0.692  0.00  0.00    +0.000 C 
ATOM     18  O   UNL     1       4.455   0.248   0.499  0.00  0.00    +0.000 OA
ATOM     20  O   UNL     1       2.330  -0.627  -3.814  0.00  0.00    +0.000 OA
ENDROOT
BRANCH  14  21
ATOM     21  N   UNL     1       4.879   0.086  -2.366  0.00  0.00    +0.000 NA
ATOM     23  C   UNL     1       5.476  -0.688  -3.312  0.00  0.00    +0.000 C 
ATOM     24  O   UNL     1       4.953  -1.745  -3.737  0.00  0.00    +0.000 OA
ATOM     25  C   UNL     1       6.772  -0.250  -3.850  0.00  0.00    +0.000 C 
ENDBRANCH  14  21
BRANCH  17  19
ATOM     19  C   UNL     1      -0.153   1.163   0.131  0.00  0.00    +0.000 C 
ATOM     22  O   UNL     1      -0.013   1.892   1.345  0.00  0.00    +0.000 OA
ENDBRANCH  17  19
BRANCH  16   9
ATOM      9  O   UNL     1      -0.043   0.773  -2.893  0.00  0.00    +0.000 OA
BRANCH   9   1
ATOM      1  C   UNL     1      -0.035   2.040  -3.590  0.00  0.00    +0.000 C 
ATOM      2  O   UNL     1      -0.302   3.099  -2.648  0.00  0.00    +0.000 OA
ATOM      3  C   UNL     1      -0.302   4.428  -3.212  0.00  0.00    +0.000 C 
ATOM      4  C   UNL     1      -1.423   4.543  -4.284  0.00  0.00    +0.000 C 
ATOM      5  C   UNL     1      -1.248   3.436  -5.356  0.00  0.00    +0.000 C 
ATOM      6  C   UNL     1      -1.123   2.023  -4.710  0.00  0.00    +0.000 C 
ATOM      8  O   UNL     1      -2.335   3.477  -6.281  0.00  0.00    +0.000 OA
BRANCH   3   7
ATOM      7  C   UNL     1      -0.478   5.436  -2.054  0.00  0.00    +0.000 C 
ATOM     10  O   UNL     1       0.582   5.287  -1.113  0.00  0.00    +0.000 OA
ENDBRANCH   3   7
BRANCH   6  11
ATOM     11  N   UNL     1      -0.791   1.080  -5.808  0.00  0.00    +0.000 NA
BRANCH  11  26
ATOM     26  C   UNL     1      -1.013  -0.359  -5.577  0.00  0.00    +0.000 C 
ATOM     27  N   UNL     1      -0.880  -1.039  -6.866  0.00  0.00    +0.000 NA
ENDBRANCH  11  26
ENDBRANCH   6  11
ENDBRANCH   9   1
ENDBRANCH  16   9
TORSDOF 7
