REMARK  Name = 71306969
REMARK  19 active torsions:
REMARK  status: ('A' for Active; 'I' for Inactive)
REMARK    1  A    between atoms: O_2  and  C_18
REMARK    2  A    between atoms: O_2  and  C_24
REMARK    3  A    between atoms: O_3  and  C_21
REMARK    4  A    between atoms: O_3  and  C_23
REMARK    5  A    between atoms: O_6  and  C_20
REMARK    6  A    between atoms: O_7  and  C_25
REMARK    7  A    between atoms: O_8  and  C_28
REMARK    8  A    between atoms: O_9  and  C_30
REMARK    9  A    between atoms: O_10  and  C_32
REMARK   10  A    between atoms: O_11  and  C_33
REMARK   11  A    between atoms: O_12  and  C_34
REMARK   12  A    between atoms: O_13  and  C_35
REMARK   13  A    between atoms: N_15  and  C_19
REMARK   14  A    between atoms: N_16  and  C_26
REMARK   15  A    between atoms: N_17  and  C_29
REMARK   16  A    between atoms: C_22  and  C_32
REMARK   17  A    between atoms: C_27  and  C_34
REMARK   18  A    between atoms: C_31  and  C_35
REMARK   19  A    between atoms: C_36  and  C_37
REMARK                            x       y       z     vdW  Elec       q    Type
REMARK                         _______ _______ _______ _____ _____    ______ ____
ROOT
ATOM      1  O   UNL     1       0.851  -0.842   0.072  0.00  0.00    +0.000 OA
ATOM     18  C   UNL     1      -1.455  -0.207   0.470  0.00  0.00    +0.000 C 
ATOM     19  C   UNL     1       0.350   1.532   0.152  0.00  0.00    +0.000 C 
ATOM     20  C   UNL     1      -1.010   1.223   0.788  0.00  0.00    +0.000 C 
ATOM     21  C   UNL     1       1.368   0.429   0.469  0.00  0.00    +0.000 C 
ATOM     22  C   UNL     1      -0.334  -1.204   0.783  0.00  0.00    +0.000 C 
ENDROOT
BRANCH  19  15
ATOM     14  O   UNL     1       2.009   3.460  -1.268  0.00  0.00    +0.000 OA
ATOM     15  N   UNL     1       0.840   2.824   0.641  0.00  0.00    +0.000 N 
ATOM     36  C   UNL     1       1.627   3.669  -0.120  0.00  0.00    +0.000 C 
ATOM     37  C   UNL     1       1.968   4.939   0.613  0.00  0.00    +0.000 C 
ATOM     38  H   UNL     1       0.633   3.078   1.603  0.00  0.00    +0.000 HD
ENDBRANCH  19  15
BRANCH  20   6
ATOM      6  O   UNL     1      -1.980   2.134   0.269  0.00  0.00    +0.000 OA
ATOM     39  H   UNL     1      -2.036   1.999  -0.693  0.00  0.00    +0.000 HD
ENDBRANCH  20   6
BRANCH  18   2
ATOM      2  O   UNL     1      -2.610  -0.495   1.252  0.00  0.00    +0.000 OA
BRANCH   2  24
ATOM      4  O   UNL     1      -4.003   0.379  -0.396  0.00  0.00    +0.000 OA
ATOM     24  C   UNL     1      -3.745  -0.758   0.428  0.00  0.00    +0.000 C 
ATOM     26  C   UNL     1      -4.952  -1.035   1.333  0.00  0.00    +0.000 C 
ATOM     28  C   UNL     1      -6.235  -1.183   0.508  0.00  0.00    +0.000 C 
ATOM     30  C   UNL     1      -6.392  -0.022  -0.479  0.00  0.00    +0.000 C 
ATOM     31  C   UNL     1      -5.105   0.180  -1.284  0.00  0.00    +0.000 C 
BRANCH  26  16
ATOM     16  N   UNL     1      -4.725  -2.254   2.115  0.00  0.00    +0.000 NA
ATOM     40  H   UNL     1      -3.894  -2.138   2.694  0.00  0.00    +0.000 HD
ATOM     41  H   UNL     1      -5.506  -2.400   2.753  0.00  0.00    +0.000 HD
ENDBRANCH  26  16
BRANCH  28   8
ATOM      8  O   UNL     1      -7.356  -1.190   1.394  0.00  0.00    +0.000 OA
ATOM     45  H   UNL     1      -7.362  -0.348   1.879  0.00  0.00    +0.000 HD
ENDBRANCH  28   8
BRANCH  30   9
ATOM      9  O   UNL     1      -7.480  -0.326  -1.348  0.00  0.00    +0.000 OA
ATOM     46  H   UNL     1      -7.240  -1.112  -1.867  0.00  0.00    +0.000 HD
ENDBRANCH  30   9
BRANCH  31  35
ATOM     35  C   UNL     1      -5.179   1.404  -2.192  0.00  0.00    +0.000 C 
BRANCH  35  13
ATOM     13  O   UNL     1      -3.952   1.524  -2.888  0.00  0.00    +0.000 OA
ATOM     50  H   UNL     1      -4.019   2.312  -3.454  0.00  0.00    +0.000 HD
ENDBRANCH  35  13
ENDBRANCH  31  35
ENDBRANCH   2  24
ENDBRANCH  18   2
BRANCH  21   3
ATOM      3  O   UNL     1       2.568   0.698  -0.255  0.00  0.00    +0.000 OA
BRANCH   3  23
ATOM      5  O   UNL     1       5.839  -0.671   0.704  0.00  0.00    +0.000 OA
ATOM     23  C   UNL     1       3.554  -0.303  -0.016  0.00  0.00    +0.000 C 
ATOM     25  C   UNL     1       3.858  -0.997  -1.348  0.00  0.00    +0.000 C 
ATOM     27  C   UNL     1       4.823   0.325   0.568  0.00  0.00    +0.000 C 
ATOM     29  C   UNL     1       5.063  -1.935  -1.217  0.00  0.00    +0.000 C 
ATOM     33  C   UNL     1       6.245  -1.222  -0.550  0.00  0.00    +0.000 C 
BRANCH  29  17
ATOM     17  N   UNL     1       5.454  -2.422  -2.543  0.00  0.00    +0.000 NA
ATOM     42  H   UNL     1       4.679  -2.938  -2.959  0.00  0.00    +0.000 HD
ATOM     43  H   UNL     1       6.224  -3.082  -2.451  0.00  0.00    +0.000 HD
ENDBRANCH  29  17
BRANCH  25   7
ATOM      7  O   UNL     1       2.717  -1.762  -1.739  0.00  0.00    +0.000 OA
ATOM     44  H   UNL     1       2.540  -2.419  -1.044  0.00  0.00    +0.000 HD
ENDBRANCH  25   7
BRANCH  33  11
ATOM     11  O   UNL     1       7.286  -2.173  -0.332  0.00  0.00    +0.000 OA
ATOM     48  H   UNL     1       8.120  -1.677  -0.283  0.00  0.00    +0.000 HD
ENDBRANCH  33  11
BRANCH  27  34
ATOM     34  C   UNL     1       4.587   0.920   1.952  0.00  0.00    +0.000 C 
BRANCH  34  12
ATOM     12  O   UNL     1       5.806   1.467   2.421  0.00  0.00    +0.000 OA
ATOM     49  H   UNL     1       5.633   1.839   3.303  0.00  0.00    +0.000 HD
ENDBRANCH  34  12
ENDBRANCH  27  34
ENDBRANCH   3  23
ENDBRANCH  21   3
BRANCH  22  32
ATOM     32  C   UNL     1      -0.694  -2.626   0.365  0.00  0.00    +0.000 C 
BRANCH  32  10
ATOM     10  O   UNL     1       0.394  -3.477   0.679  0.00  0.00    +0.000 OA
ATOM     47  H   UNL     1       0.146  -4.375   0.400  0.00  0.00    +0.000 HD
ENDBRANCH  32  10
ENDBRANCH  22  32
TORSDOF 18
