REMARK  Name = 
REMARK  26 active torsions:
REMARK  status: ('A' for Active; 'I' for Inactive)
REMARK    1  A    between atoms: C_4  and  C_9
REMARK    2  A    between atoms: C_6  and  O_23
REMARK    3  A    between atoms: C_12  and  C_20
REMARK    4  A    between atoms: C_13  and  O_23
REMARK    5  A    between atoms: C_16  and  O_19
REMARK    6  A    between atoms: O_19  and  C_26
REMARK    7  A    between atoms: C_25  and  C_30
REMARK    8  A    between atoms: C_29  and  O_34
REMARK    9  A    between atoms: O_34  and  C_38
REMARK   10  A    between atoms: C_35  and  O_43
REMARK   11  A    between atoms: C_39  and  C_44
REMARK   12  A    between atoms: O_43  and  C_48
REMARK   13  A    between atoms: C_49  and  C_54
REMARK   14  A    between atoms: C_51  and  O_56
REMARK   15  A    between atoms: O_56  and  C_58
REMARK   16  A    between atoms: C_57  and  C_63
REMARK   17  A    between atoms: C_61  and  O_66
REMARK   18  A    between atoms: O_66  and  C_70
REMARK   19  A    between atoms: C_69  and  C_75
REMARK   20  A    between atoms: C_72  and  N_78
REMARK   21  A    between atoms: C_73  and  O_76
REMARK   22  A    between atoms: O_76  and  C_85
REMARK   23  A    between atoms: C_82  and  O_90
REMARK   24  A    between atoms: C_84  and  C_88
REMARK   25  A    between atoms: O_90  and  C_97
REMARK   26  A    between atoms: C_98  and  C_100
REMARK                            x       y       z     vdW  Elec       q    Type
REMARK                         _______ _______ _______ _____ _____    ______ ____
ROOT
ATOM     46  C   UNL     1       5.986 -16.343  30.383  0.00  0.00    +0.000 C 
ATOM     47  C   UNL     1       7.203 -17.194  30.854  0.00  0.00    +0.000 C 
ATOM     48  C   UNL     1       7.439 -18.498  30.020  0.00  0.00    +0.000 C 
ATOM     49  C   UNL     1       7.173 -18.264  28.484  0.00  0.00    +0.000 C 
ATOM     50  O   UNL     1       6.038 -17.401  28.266  0.00  0.00    +0.000 OA
ATOM     51  C   UNL     1       6.106 -16.098  28.858  0.00  0.00    +0.000 C 
ATOM     52  N   UNL     1       5.934 -15.071  31.117  0.00  0.00    +0.000 NA
ATOM     53  O   UNL     1       7.027 -17.521  32.232  0.00  0.00    +0.000 OA
ENDROOT
BRANCH  49  54
ATOM     54  C   UNL     1       6.781 -19.532  27.672  0.00  0.00    +0.000 C 
ATOM     55  O   UNL     1       6.541 -19.213  26.305  0.00  0.00    +0.000 OA
ENDBRANCH  49  54
BRANCH  48  43
ATOM     43  O   UNL     1       8.796 -18.916  30.360  0.00  0.00    +0.000 OA
BRANCH  43  35
ATOM     35  C   UNL     1       9.301 -20.152  29.817  0.00  0.00    +0.000 C 
ATOM     36  C   UNL     1      10.647 -20.566  30.456  0.00  0.00    +0.000 C 
ATOM     37  C   UNL     1      11.106 -21.926  29.852  0.00  0.00    +0.000 C 
ATOM     38  C   UNL     1      10.015 -23.047  29.852  0.00  0.00    +0.000 C 
ATOM     39  C   UNL     1       8.619 -22.458  29.419  0.00  0.00    +0.000 C 
ATOM     40  O   UNL     1       8.364 -21.207  30.088  0.00  0.00    +0.000 OA
ATOM     41  N   UNL     1      11.669 -19.537  30.207  0.00  0.00    +0.000 NA
ATOM     42  O   UNL     1      12.266 -22.380  30.549  0.00  0.00    +0.000 OA
BRANCH  39  44
ATOM     44  C   UNL     1       7.378 -23.339  29.751  0.00  0.00    +0.000 C 
ATOM     45  O   UNL     1       6.167 -22.590  29.848  0.00  0.00    +0.000 OA
ENDBRANCH  39  44
BRANCH  38  34
ATOM     34  O   UNL     1      10.614 -24.079  29.019  0.00  0.00    +0.000 OA
BRANCH  34  29
ATOM     24  O   UNL     1       9.183 -25.917  29.512  0.00  0.00    +0.000 OA
ATOM     25  C   UNL     1       8.198 -26.867  29.035  0.00  0.00    +0.000 C 
ATOM     26  C   UNL     1       8.769 -27.833  27.943  0.00  0.00    +0.000 C 
ATOM     27  C   UNL     1       9.680 -27.082  26.910  0.00  0.00    +0.000 C 
ATOM     28  C   UNL     1      10.658 -26.097  27.604  0.00  0.00    +0.000 C 
ATOM     29  C   UNL     1       9.806 -25.133  28.472  0.00  0.00    +0.000 C 
ATOM     32  N   UNL     1      11.450 -25.367  26.602  0.00  0.00    +0.000 NA
ATOM     33  O   UNL     1      10.392 -28.022  26.108  0.00  0.00    +0.000 OA
BRANCH  25  30
ATOM     30  C   UNL     1       7.651 -27.635  30.264  0.00  0.00    +0.000 C 
ATOM     31  O   UNL     1       7.134 -26.731  31.235  0.00  0.00    +0.000 OA
ENDBRANCH  25  30
BRANCH  26  19
ATOM     19  O   UNL     1       7.729 -28.685  27.382  0.00  0.00    +0.000 OA
BRANCH  19  16
ATOM     12  C   UNL     1       5.342 -26.396  25.695  0.00  0.00    +0.000 C 
ATOM     13  C   UNL     1       4.685 -27.322  24.601  0.00  0.00    +0.000 C 
ATOM     14  C   UNL     1       5.398 -28.705  24.393  0.00  0.00    +0.000 C 
ATOM     15  C   UNL     1       5.983 -29.277  25.714  0.00  0.00    +0.000 C 
ATOM     16  C   UNL     1       6.885 -28.176  26.321  0.00  0.00    +0.000 C 
ATOM     17  O   UNL     1       5.989 -27.133  26.761  0.00  0.00    +0.000 OA
ATOM     18  O   UNL     1       4.504 -29.647  23.801  0.00  0.00    +0.000 OA
ATOM     21  N   UNL     1       6.735 -30.513  25.454  0.00  0.00    +0.000 NA
BRANCH  12  20
ATOM     20  C   UNL     1       4.296 -25.448  26.343  0.00  0.00    +0.000 C 
ATOM     22  O   UNL     1       4.876 -24.651  27.371  0.00  0.00    +0.000 OA
ENDBRANCH  12  20
BRANCH  13  23
ATOM     23  O   UNL     1       4.375 -26.567  23.395  0.00  0.00    +0.000 OA
BRANCH  23   6
ATOM      1  C   UNL     1       4.542 -25.782  21.094  0.00  0.00    +0.000 C 
ATOM      2  C   UNL     1       5.437 -25.705  19.824  0.00  0.00    +0.000 C 
ATOM      3  C   UNL     1       6.798 -25.011  20.110  0.00  0.00    +0.000 C 
ATOM      4  C   UNL     1       7.561 -25.655  21.309  0.00  0.00    +0.000 C 
ATOM      5  C   UNL     1       6.632 -25.785  22.556  0.00  0.00    +0.000 C 
ATOM      6  C   UNL     1       5.281 -26.503  22.258  0.00  0.00    +0.000 C 
ATOM      7  N   UNL     1       3.293 -26.496  20.779  0.00  0.00    +0.000 NA
ATOM      8  O   UNL     1       4.752 -24.996  18.792  0.00  0.00    +0.000 OA
ATOM     11  O   UNL     1       7.587 -25.067  18.919  0.00  0.00    +0.000 OA
BRANCH   4   9
ATOM      9  C   UNL     1       8.857 -24.862  21.657  0.00  0.00    +0.000 C 
ATOM     10  O   UNL     1       9.604 -25.496  22.692  0.00  0.00    +0.000 OA
ENDBRANCH   4   9
ENDBRANCH  23   6
ENDBRANCH  13  23
ENDBRANCH  19  16
ENDBRANCH  26  19
ENDBRANCH  34  29
ENDBRANCH  38  34
ENDBRANCH  43  35
ENDBRANCH  48  43
BRANCH  51  56
ATOM     56  O   UNL     1       5.044 -15.249  28.347  0.00  0.00    +0.000 OA
BRANCH  56  58
ATOM     57  C   UNL     1       4.850 -15.863  25.880  0.00  0.00    +0.000 C 
ATOM     58  C   UNL     1       5.088 -14.749  26.973  0.00  0.00    +0.000 C 
ATOM     59  C   UNL     1       6.285 -13.774  26.667  0.00  0.00    +0.000 C 
ATOM     60  C   UNL     1       6.542 -13.562  25.136  0.00  0.00    +0.000 C 
ATOM     61  C   UNL     1       6.627 -14.977  24.497  0.00  0.00    +0.000 C 
ATOM     62  O   UNL     1       5.276 -15.477  24.557  0.00  0.00    +0.000 OA
ATOM     65  C   UNL     1       7.806 -12.707  24.855  0.00  0.00    +0.000 C 
ATOM     67  O   UNL     1       6.062 -12.523  27.316  0.00  0.00    +0.000 OA
BRANCH  57  63
ATOM     63  C   UNL     1       3.356 -16.274  25.795  0.00  0.00    +0.000 C 
ATOM     64  O   UNL     1       3.136 -17.293  24.824  0.00  0.00    +0.000 OA
ENDBRANCH  57  63
BRANCH  61  66
ATOM     66  O   UNL     1       7.159 -15.008  23.147  0.00  0.00    +0.000 OA
BRANCH  66  70
ATOM     68  O   UNL     1       6.471 -18.367  21.578  0.00  0.00    +0.000 OA
ATOM     69  C   UNL     1       6.167 -17.029  22.019  0.00  0.00    +0.000 C 
ATOM     70  C   UNL     1       7.458 -16.295  22.517  0.00  0.00    +0.000 C 
ATOM     71  C   UNL     1       8.447 -17.239  23.303  0.00  0.00    +0.000 C 
ATOM     72  C   UNL     1       8.506 -18.708  22.770  0.00  0.00    +0.000 C 
ATOM     73  C   UNL     1       7.047 -19.208  22.601  0.00  0.00    +0.000 C 
ATOM     74  O   UNL     1       9.756 -16.665  23.320  0.00  0.00    +0.000 OA
BRANCH  72  78
ATOM     78  N   UNL     1       9.218 -19.552  23.687  0.00  0.00    +0.000 NA
ATOM     79  C   UNL     1      10.562 -19.720  23.726  0.00  0.00    +0.000 C 
ATOM     80  O   UNL     1      11.352 -19.174  22.922  0.00  0.00    +0.000 OA
ATOM     81  O   UNL     1      11.080 -20.502  24.692  0.00  0.00    +0.000 OA
ENDBRANCH  72  78
BRANCH  69  75
ATOM     75  C   UNL     1       5.463 -16.277  20.860  0.00  0.00    +0.000 C 
ATOM     77  O   UNL     1       4.299 -16.980  20.430  0.00  0.00    +0.000 OA
ENDBRANCH  69  75
BRANCH  73  76
ATOM     76  O   UNL     1       6.975 -20.611  22.246  0.00  0.00    +0.000 OA
BRANCH  76  85
ATOM     82  C   UNL     1       2.755 -21.026  22.415  0.00  0.00    +0.000 C 
ATOM     83  O   UNL     1       3.421 -21.331  21.172  0.00  0.00    +0.000 OA
ATOM     84  C   UNL     1       4.739 -20.762  21.074  0.00  0.00    +0.000 C 
ATOM     85  C   UNL     1       5.673 -21.273  22.226  0.00  0.00    +0.000 C 
ATOM     86  C   UNL     1       4.942 -21.354  23.613  0.00  0.00    +0.000 C 
ATOM     87  C   UNL     1       3.470 -21.852  23.513  0.00  0.00    +0.000 C 
ATOM     89  O   UNL     1       5.676 -22.197  24.501  0.00  0.00    +0.000 OA
ATOM     92  N   UNL     1       2.800 -21.685  24.814  0.00  0.00    +0.000 NA
BRANCH  84  88
ATOM     88  C   UNL     1       5.316 -21.067  19.669  0.00  0.00    +0.000 C 
ATOM     91  O   UNL     1       4.549 -20.434  18.650  0.00  0.00    +0.000 OA
ENDBRANCH  84  88
BRANCH  82  90
ATOM     90  O   UNL     1       1.346 -21.318  22.320  0.00  0.00    +0.000 OA
BRANCH  90  97
ATOM     93  O   UNL     1      -0.214 -20.003  19.129  0.00  0.00    +0.000 OA
ATOM     94  C   UNL     1      -0.148 -18.571  19.314  0.00  0.00    +0.000 C 
ATOM     95  C   UNL     1      -0.423 -18.194  20.795  0.00  0.00    +0.000 C 
ATOM     96  C   UNL     1       0.555 -18.961  21.726  0.00  0.00    +0.000 C 
ATOM     97  C   UNL     1       0.524 -20.498  21.438  0.00  0.00    +0.000 C 
ATOM     98  C   UNL     1       0.751 -20.750  19.910  0.00  0.00    +0.000 C 
ATOM     99  O   UNL     1      -1.124 -17.970  18.468  0.00  0.00    +0.000 OA
ATOM    101  O   UNL     1       0.235 -18.709  23.094  0.00  0.00    +0.000 OA
ATOM    102  N   UNL     1      -0.286 -16.743  20.995  0.00  0.00    +0.000 NA
BRANCH  98 100
ATOM    100  C   UNL     1       0.632 -22.249  19.542  0.00  0.00    +0.000 C 
ATOM    103  O   UNL     1       0.839 -22.433  18.147  0.00  0.00    +0.000 OA
ENDBRANCH  98 100
ENDBRANCH  90  97
ENDBRANCH  82  90
ENDBRANCH  76  85
ENDBRANCH  73  76
ENDBRANCH  66  70
ENDBRANCH  61  66
ENDBRANCH  56  58
ENDBRANCH  51  56
TORSDOF 26
