REMARK  Name = 2764
REMARK  4 active torsions:
REMARK  status: ('A' for Active; 'I' for Inactive)
REMARK    1  A    between atoms: O_3  and  C_24
REMARK    2  A    between atoms: N_5  and  C_8
REMARK    3  A    between atoms: N_6  and  C_15
REMARK    4  A    between atoms: C_18  and  C_24
REMARK                            x       y       z     vdW  Elec       q    Type
REMARK                         _______ _______ _______ _____ _____    ______ ____
ROOT
ATOM      1  F   UNL     1      -2.216   2.783   0.361  0.00  0.00    +0.000 F 
ATOM      2  O   UNL     1       2.809   2.524   0.233  0.00  0.00    +0.000 OA
ATOM      5  N   UNL     1       1.528  -1.311  -0.291  0.00  0.00    +0.000 N 
ATOM     11  C   UNL     1       0.551  -0.289  -0.126  0.00  0.00    +0.000 A 
ATOM     12  C   UNL     1       2.870  -0.982  -0.269  0.00  0.00    +0.000 A 
ATOM     13  C   UNL     1       0.966   1.048   0.057  0.00  0.00    +0.000 A 
ATOM     14  C   UNL     1      -0.829  -0.552  -0.138  0.00  0.00    +0.000 A 
ATOM     15  C   UNL     1      -1.759   0.479   0.026  0.00  0.00    +0.000 A 
ATOM     18  C   UNL     1       3.369   0.249  -0.102  0.00  0.00    +0.000 A 
ATOM     19  C   UNL     1       2.416   1.374   0.077  0.00  0.00    +0.000 A 
ATOM     22  C   UNL     1       0.034   2.080   0.221  0.00  0.00    +0.000 A 
ATOM     23  C   UNL     1      -1.329   1.790   0.205  0.00  0.00    +0.000 A 
ENDROOT
BRANCH  15   6
ATOM      6  N   UNL     1      -3.127   0.188   0.011  0.00  0.00    +0.000 N 
ATOM      7  N   UNL     1      -5.881  -0.518  -0.246  0.00  0.00    +0.000 NA
ATOM     16  C   UNL     1      -3.959   0.829  -1.016  0.00  0.00    +0.000 C 
ATOM     17  C   UNL     1      -3.599  -1.117   0.488  0.00  0.00    +0.000 C 
ATOM     20  C   UNL     1      -5.428   0.828  -0.593  0.00  0.00    +0.000 C 
ATOM     21  C   UNL     1      -5.081  -1.050   0.856  0.00  0.00    +0.000 C 
ATOM     25  H   UNL     1      -6.860  -0.480   0.038  0.00  0.00    +0.000 HD
ENDBRANCH  15   6
BRANCH   5   8
ATOM      8  C   UNL     1       1.146  -2.727  -0.486  0.00  0.00    +0.000 C 
ATOM      9  C   UNL     1       1.692  -3.795   0.401  0.00  0.00    +0.000 C 
ATOM     10  C   UNL     1       0.242  -3.416   0.481  0.00  0.00    +0.000 C 
ENDBRANCH   5   8
BRANCH  18  24
ATOM      4  O   UNL     1       5.598  -0.290  -0.726  0.00  0.00    +0.000 OA
ATOM     24  C   UNL     1       4.823   0.415  -0.105  0.00  0.00    +0.000 C 
BRANCH  24   3
ATOM      3  O   UNL     1       5.162   1.460   0.681  0.00  0.00    +0.000 OA
ATOM     26  H   UNL     1       6.133   1.603   0.705  0.00  0.00    +0.000 HD
ENDBRANCH  24   3
ENDBRANCH  18  24
TORSDOF 4
